
**** 10/13/25 23:12:26 **** PSpice 23.1.0 (30 January 2024) *** ID# 0 ********

 ** Profile: "STARTUP-START_UP"  [ C:\Users\Oyebisi\Downloads\UCC28881 Stimulation files\UCC28881_PSPICE_TRANS\ucc28881_trans-pspicef


 ****     CIRCUIT DESCRIPTION


******************************************************************************




** Creating circuit file "START_UP.cir" 
** WARNING: THIS AUTOMATICALLY GENERATED FILE MAY BE OVERWRITTEN BY SUBSEQUENT SIMULATIONS

*Libraries: 
* Profile Libraries :
* Local Libraries :
.LIB "../../../ucc28881_trans.lib" 
* From [PSPICE NETLIST] section of C:\cds_spb_home\cdssetup\OrCAD_PSpiceTIPSpice_Install\23.1.0\PSpice.ini file:
.lib "nom_pspti.lib" 
.lib "nom.lib" 

*Analysis directives: 
.TRAN  0 10m 0 40n SKIPBP 
.OPTIONS ADVCONV
.OPTIONS FILEMODELSEARCH
.OPTIONS ITL1= 750
.OPTIONS ITL2= 100
.OPTIONS ITL4= 50
.OPTIONS RELTOL= 0.002
.PROBE64 V(alias(*)) I(alias(*)) 
.INC "..\STARTUP.net" 



**** INCLUDING STARTUP.net ****
* source UCC28881_TRANS
R_R12         0 N14613364  1G TC=0,0 
R_R3         N14613750 FB  87.7k  
R_R2         GND_MOS FB  10k  
X_C4         GND_MOS N14613750 CESR PARAMS: C=15n ESR=3m
R_Rload         0 VOUT  200  
C_C3         GND_MOS VDD  0.1u  
R_R13         N14613732 HVIN  10  
D_D3         VOUT N14613750 DIODE 
D_D4         0 GND_MOS DIODE 
V_VIN         N14613732 0  
+PWL 0 0 10u 0 20u 350 
X_C5         0 VOUT CESR PARAMS: C=330u ESR=0.03
X_L2         GND_MOS VOUT LDCR PARAMS: L=1m DCR=1.2
X_U1         HVIN FB GND_MOS GND_MOS HVIN N14613364 VDD UCC28881_TRANS
C_C6         GND_MOS FB  0.01u  
D_D5         0 VOUT ZENER_16V 

**** RESUMING START_UP.cir ****
.END


          JOB CONCLUDED

**** 10/13/25 23:12:26 **** PSpice 23.1.0 (30 January 2024) *** ID# 0 ********

 ** Profile: "STARTUP-START_UP"  [ C:\Users\Oyebisi\Downloads\UCC28881 Stimulation files\UCC28881_PSPICE_TRANS\ucc28881_trans-pspicef


 ****     JOB STATISTICS SUMMARY


******************************************************************************



  License check-out time            =         .86
  Total job time (using Solver 1)   =      441.53
